/*--------------------------------*- C++ -*----------------------------------*\
  =========                 |
  \\      /  F ield         | OpenFOAM: The Open Source CFD Toolbox
   \\    /   O peration     | Website:  https://openfoam.org
    \\  /    A nd           | Version:  9
     \\/     M anipulation  |
\*---------------------------------------------------------------------------*/
FoamFile
{
    format      binary;
    class       polyBoundaryMesh;
    location    "constant/polyMesh";
    object      boundary;
}
// * * * * * * * * * * * * * * * * * * * * * * * * * * * * * * * * * * * * * //

6
(
    symmetryX
    {
        type            symmetryPlane;
        inGroups        List<word> 1(symmetryPlane);
        nFaces          412;
        startFace       147728;
    }
    symmetryY
    {
        type            symmetryPlane;
        inGroups        List<word> 1(symmetryPlane);
        nFaces          412;
        startFace       148140;
    }
    front
    {
        type            empty;
        inGroups        List<word> 1(empty);
        nFaces          74160;
        startFace       148552;
    }
    back
    {
        type            empty;
        inGroups        List<word> 1(empty);
        nFaces          74160;
        startFace       222712;
    }
    innerWall
    {
        type            wall;
        inGroups        List<word> 1(wall);
        nFaces          180;
        startFace       296872;
    }
    outerWall
    {
        type            wall;
        inGroups        List<word> 1(wall);
        nFaces          180;
        startFace       297052;
    }
)

// ************************************************************************* //
